*Heading
** Job name: Job-2 Model name: Model-1
** Generated by: Abaqus/CAE 2017
*Preprint, echo=NO, model=NO, history=NO, contact=NO
**
** PARTS
**
*Part, name=Part-1
*Node
      1,           0.,           0.
      2,           1.,           0.
      3,           2.,           0.
      4,           3.,           0.
      5,           4.,           0.
      6,           5.,           0.
      7,           6.,           0.
      8,           7.,           0.
      9,           8.,           0.
     10,           9.,           0.
     11,          10.,           0.
     12,          11.,           0.
     13,          12.,           0.
     14,          13.,           0.
     15,          14.,           0.
     16,          15.,           0.
     17,          16.,           0.
     18,          17.,           0.
     19,          18.,           0.
     20,          19.,           0.
** ... 10181 like lines cut
*Element, type=CPS4R
    1,     1,     2,   103,   102
    2,     2,     3,   104,   103
    3,     3,     4,   105,   104
    4,     4,     5,   106,   105
    5,     5,     6,   107,   106
    6,     6,     7,   108,   107
    7,     7,     8,   109,   108
    8,     8,     9,   110,   109
    9,     9,    10,   111,   110
   10,    10,    11,   112,   111
   11,    11,    12,   113,   112
   12,    12,    13,   114,   113
   13,    13,    14,   115,   114
   14,    14,    15,   116,   115
   15,    15,    16,   117,   116
   16,    16,    17,   118,   117
   17,    17,    18,   119,   118
   18,    18,    19,   120,   119
   19,    19,    20,   121,   120
   20,    20,    21,   122,   121
** ... 9980 like lines cut
*Nset, nset=Set-1, generate
     1,  10201,      1
*Elset, elset=Set-1, generate
     1,  10000,      1
** Section: Section-1
*Solid Section, elset=Set-1, material=Material-1
1.,
*End Part
**  
**
** ASSEMBLY
**
*Assembly, name=Assembly
**  
*Instance, name=Part-1-1, part=Part-1
*End Instance
**  
*Nset, nset=Set-1, instance=Part-1-1, generate
     1,  10101,    101
*Elset, elset=Set-1, instance=Part-1-1, generate
    1,  9901,   100
*Nset, nset=Set-2, instance=Part-1-1, generate
   1,  101,    1
*Elset, elset=Set-2, instance=Part-1-1, generate
   1,  100,    1
*Elset, elset=_Surf-1_S3, internal, instance=Part-1-1, generate
 9901,  9950,     1
*Surface, type=ELEMENT, name=Surf-1
_Surf-1_S3, S3
*End Assembly
** 
** MATERIALS
** 
*Material, name=Material-1
*Elastic
200000., 0.3
** ----------------------------------------------------------------
** 
** STEP: Step-1
** 
*Step, name=Step-1, nlgeom=NO
*Static
1., 1., 1e-05, 1.
** 
** BOUNDARY CONDITIONS
** 
** Name: BC-1 Type: Displacement/Rotation
*Boundary
Set-1, 1, 1
** Name: BC-2 Type: Displacement/Rotation
*Boundary
Set-2, 2, 2
** 
** LOADS
** 
** Name: Load-1   Type: Pressure
*Dsload
Surf-1, P, 10.
** 
** OUTPUT REQUESTS
** 
*Restart, write, frequency=0
** 
** FIELD OUTPUT: F-Output-1
** 
*Output, field, variable=PRESELECT
** 
** HISTORY OUTPUT: H-Output-1
** 
*Output, history, variable=PRESELECT
*End Step
